  Page 1                                    Fri May  6 20:37:44 2022

  ******************************************************************
  *                           E P A N E T                          *
  *                   Hydraulic and Water Quality                  *
  *                   Analysis for Pipe Networks                   *
  *                         Version 2.2                            *
  ******************************************************************
  
  Analysis begun Fri May  6 20:37:44 2022

  Analysis ended Fri May  6 20:37:44 2022
